Cases/IEEE39_RE.log

 PSS(R)E Version 35
 Copyright (c) 1976-2025
 Siemens Industry, Inc.,
 Power Technologies International                            (PTI)
 This program is a confidential  unpublished  work  created  and  first
 licensed in 1976.  It is a trade secret which is the property of  PTI.
 All use,  disclosure,  and/or reproduction not specifically authorized
 by  PTI  is prohibited.   This  program is protected  under  copyright
 laws  of  non-U.S.  countries  and  by  application  of  international
 treaties.  All  Rights  Reserved  Under  The  Copyright  Laws.


           SIEMENS POWER TECHNOLOGIES INTERNATIONAL

      20000 BUS POWER SYSTEM SIMULATOR--PSS(R)E-35.5.0

             INITIATED ON WED, DEC 10 2025  15:46

 NEW ENGLAND TEST SYSTEM, 39 BUSES, 9 GENERATORS, 2 AREAS, 4
 UPDATED BY JOSE CONTO


 Power flow solution parameters changed:
 X--ORIGINAL--X  X-NEW VALUE--X  DATA ITEM
         20             100      ITMXN

 4 loads converted during this step

 15 loads converted during this step

 19 of 19 loads converted

  ITER       DELTAP      BUS         DELTAQ      BUS        DELTA/V/      BUS       DELTAANG      BUS
   0.0       0.0001(      6     )    0.0000(      8     )
                                                             0.00000(            )   0.00000(     31     )
   0.5       0.0000(     31     )    0.0000(     31     )
                                                             0.00000(     31     )   0.00000(            )
   1.0       0.0000(      6     )    0.0000(     31     )


 Reached tolerance in 1 iterations

 Largest mismatch:     -0.00 MW     -0.00 Mvar      0.00 MVA at bus 6 [BUS6        345.00]
 System total absolute mismatch:                    0.00 MVA

 SWING BUS SUMMARY:
   BUS#-SCT X-- NAME --X BASKV      PGEN     PMAX    PMIN      QGEN     QMAX    QMIN
     39     GEN39       345.00     708.5   1090.0     0.0     115.9    574.8  -173.3

 Generator conversion completed using ZSORCE
 Diagonals = 42   Off-diagonals = 70   Maximum size = 98

 42 diagonal and 70 off-diagonal elements

 ITER DELTAV/TOL X----------- AT BUS -----------X  REAL(DELTAV)  IMAG(DELTAV)
    1     0.015      31     [GEN31       34.500]    0.1491E-06    0.6691E-08

 Reached tolerance in 1 iterations

 Largest mismatch:      0.01 MW      0.03 Mvar      0.03 MVA at bus 39 [GEN39       345.00]
 System total absolute mismatch:                    0.06 MVA

 ITER DELTAV/TOL X----------- AT BUS -----------X  REAL(DELTAV)  IMAG(DELTAV)
    1     0.001       8     [LOAD8       345.00]    0.5288E-08   -0.5221E-08

 Reached tolerance in 1 iterations

 Largest mismatch:      0.01 MW      0.03 Mvar      0.03 MVA at bus 39 [GEN39       345.00]
 System total absolute mismatch:                    0.06 MVA


 Model "REGCAU1" at bus 40     [RE40_2      345.00] converted to Model "REGCA1"

 Model "REECAU1" at bus 40     [RE40_2      345.00] converted to Model "REECA1"

 Model "REPCAU1" at bus 40     [RE40_2      345.00] converted to Model "REPCA1"

 Model "REGCAU1" at bus 41     [RE41_29     345.00] converted to Model "REGCA1"

 Model "REECAU1" at bus 41     [RE41_29     345.00] converted to Model "REECA1"

 Model "REPCAU1" at bus 41     [RE41_29     345.00] converted to Model "REPCA1"

 Model "REGCAU1" at bus 42     [RE42_39     345.00] converted to Model "REGCA1"

 Model "REECAU1" at bus 42     [RE42_39     345.00] converted to Model "REECA1"

 Model "REPCAU1" at bus 42     [RE42_39     345.00] converted to Model "REPCA1"

 Model "GENTPJU1" at bus 30     [GEN30       34.500] converted to Model "GENTPJ1"

 Model "GENTPJU1" at bus 31     [GEN31       34.500] converted to Model "GENTPJ1"

 Model "GENTPJU1" at bus 32     [GEN32       21.000] converted to Model "GENTPJ1"

 Model "GENTPJU1" at bus 33     [GEN33       21.000] converted to Model "GENTPJ1"

 Model "GENTPJU1" at bus 34     [GEN34       15.500] converted to Model "GENTPJ1"

 Model "GENTPJU1" at bus 35     [GEN35       15.500] converted to Model "GENTPJ1"

 Model "GENTPJU1" at bus 36     [GEN36       12.500] converted to Model "GENTPJ1"

 Model "GENTPJU1" at bus 37     [GEN37       12.500] converted to Model "GENTPJ1"

 Model "GENTPJU1" at bus 38     [GEN38       34.500] converted to Model "GENTPJ1"

 Model "GENTPJU1" at bus 39     [GEN39       345.00] converted to Model "GENTPJ1"
 Out of file data--switch to terminal input mode

 Generator models use:
  CONS         1-    160
  STATES       1-     60
  VARS         1-     10

 Stabilizer models use:
  CONS       161-    330
  STATES      61-    220
  VARS        11-     50
  ICONS        1-     60

 Excitation System models use:
  CONS       331-    490
  STATES     221-    270
  VARS        51-     60

 Turbine Governor models use:
  CONS       491-    600
  STATES     271-    320
  VARS        61-     70

 Renewable Generator models use:
  CONS       601-    642
  STATES     321-    329
  VARS        71-     82
  ICONS       61-     63

 Renewable Electrical models use:
  CONS       643-    777
  STATES     330-    347
  VARS        83-    109
  ICONS       64-     81

 Renewable Auxiliary models use:
  CONS       778-    858
  STATES     348-    368
  VARS       110-    136
  ICONS       82-    102


 SUMMARY OF MODELS READ:

 GENS:  GENTPJ1
          10

 STABS: PSS2A
          10

 EXSYS: IEEEX1
          10

 GOVS:  IEESGO
          10

 REGEN: REGCA1
           3

 REELC: REECA1
           3

 REPLN: REPCA1
           3

 NEXT AVAILABLE ADDRESSES ARE:
     CON   STATE     VAR    ICON
     859     369     137     103

 Only PSSE supplied models in case. Compilation is not required

 Out of file data--switch to terminal input mode

 Shared Load Characteristic models use:
  CONS       859-   1257
  ICONS      103-    108

 Unshared Load models use:
  STATES     369-    449
  VARS       137-    574
  ICONS      109-    252


 SUMMARY OF MODELS READ:

 USER:  USRLOD
           3

 NEXT AVAILABLE ADDRESSES ARE:
     CON   STATE     VAR    ICON
    1258     450     575     253

 CONEC and CONET (if present) are unchanged. Compile CONEC and CONET (if present) and
 Compile models not supplied by PSSE and create user dll

 8 Output channels have been added


 Next available addresses are:
   CHANNEL    VAR    ICON
        9     583     257

 4 Output channels have been added


 Next available addresses are:
   CHANNEL    VAR    ICON
       13     583     257

 4 Output channels have been added


 Next available addresses are:
   CHANNEL    VAR    ICON
       17     583     257

 CHANNEL   17 WITH IDENTIFIER "BUS3 LOAD MVA" ADDED

 CHANNEL   18 WITH IDENTIFIER "BUS3 UD" ADDED

 CHANNEL   19 WITH IDENTIFIER "BUS3 UQ" ADDED

 CHANNEL   20 WITH IDENTIFIER "BUS3 LOAD BUS V" ADDED

 CHANNEL   21 WITH IDENTIFIER "BUS3 LOW SIDE BUS V" ADDED

 CHANNEL   22 WITH IDENTIFIER "BUS3 MA P" ADDED

 CHANNEL   23 WITH IDENTIFIER "BUS3 MA Q" ADDED

 CHANNEL   24 WITH IDENTIFIER "BUS3 TELE" ADDED

 CHANNEL   25 WITH IDENTIFIER "BUS3 SPEED DEVIATION" ADDED

 CHANNEL   26 WITH IDENTIFIER "BUS3 INIT LOAD TORQUE" ADDED

 CHANNEL   27 WITH IDENTIFIER "BUS3 ID" ADDED

 CHANNEL   28 WITH IDENTIFIER "BUS3 IQ" ADDED

 CHANNEL   29 WITH IDENTIFIER "BUS3 MA I" ADDED

 CHANNEL   30 WITH IDENTIFIER "BUS3 MA MVA" ADDED

 CHANNEL   31 WITH IDENTIFIER "BUS3 TL" ADDED

 CHANNEL   32 WITH IDENTIFIER "BUS3 EQ1" ADDED

 CHANNEL   33 WITH IDENTIFIER "BUS3 ED1" ADDED

 CHANNEL   34 WITH IDENTIFIER "BUS3 EQ2" ADDED

 CHANNEL   35 WITH IDENTIFIER "BUS3 ED2" ADDED

 CHANNEL   36 WITH IDENTIFIER "BUS3 SPEED DEVIATION" ADDED

 CHANNEL   37 WITH IDENTIFIER "BUS3 ANGLE DEVIATION" ADDED

 42 diagonal and 70 off-diagonal elements

 Models have removed constant admittance load and/or machines--REFACTORIZING

 42 diagonal and 70 off-diagonal elements

 Model REPCA1 Bus 40 [RE40_2      345.00] Machine "1 " :
 Branch not defined in ICONs M+1 through M+3: Model will use machine power instead

 Model REPCA1 Bus 41 [RE41_29     345.00] Machine "1 " :
 Branch not defined in ICONs M+1 through M+3: Model will use machine power instead

 Model REPCA1 Bus 42 [RE42_39     345.00] Machine "1 " :
 Branch not defined in ICONs M+1 through M+3: Model will use machine power instead

     PTI INTERACTIVE POWER SYSTEM SIMULATOR--PSS(R)E     WED, DEC 10 2025  15:46
 NEW ENGLAND TEST SYSTEM, 39 BUSES, 9 GENERATORS, 2 AREAS, 4
 UPDATED BY JOSE CONTO

 INITIAL CONDITION LOAD FLOW USED 1 ITERATIONS

 ----------------------------- MACHINE INITIAL CONDITIONS -----------------------------
   BUS#-SCT X-- NAME --X BASKV ID  ETERM   EFD    POWER    VARS   P.F.  ANGLE   ID     IQ
     30     GEN30       34.500 1  1.0268 2.7988  250.00  153.18 0.8527  20.74 0.9477 0.4243
     31     GEN31       34.500 1  1.0015 2.6667  572.93  429.80 0.7999  12.21 0.7725 0.3675
     32     GEN32       21.000 1  0.9831 1.7067  450.00  121.03 0.9657  19.16 0.4270 0.3651
     33     GEN33       21.000 1  0.9972 1.7346  632.00  176.55 0.9631  21.62 0.4236 0.3665
     34     GEN34       15.500 1  1.0123 1.7352  508.00  198.31 0.9315  14.96 0.3802 0.3227
     35     GEN35       15.500 1  1.0493 1.9708  450.00  260.05 0.8658   7.49 0.3538 0.2880
     36     GEN36       12.500 1  1.0635 1.8249  560.00  137.20 0.9713  21.31 0.3661 0.3816
     37     GEN37       12.500 1  1.0278 1.7353  540.00   96.30 0.9845  25.24 0.3818 0.3960
     38     GEN38       34.500 1  1.0265 1.5151  629.99  145.13 0.9745  18.75 0.2311 0.2940
     39     GEN39       345.00 1  1.0300 1.7565  708.52  115.91 0.9869  24.50 0.4092 0.4129
     40     RE40_2      345.00 1  1.0200 0.0000  200.00   -2.28 0.9999 -10.68-0.0112 0.9804
     41     RE41_29     345.00 1  1.0150 0.0000  200.00  -19.03 0.9955  -6.36-0.0937 0.9852
     42     RE42_39     345.00 1  1.0250 0.0000  200.00   -0.76 1.0000  -5.52-0.0037 0.9756

 INITIAL CONDITIONS CHECK O.K.

 Channel output file is "./Cases/IEEE39_RE.out"

 No power flow data changed for load "1" at bus 12 [LOAD12      138.00]

 No power flow data changed for load "1" at bus 7 [LOAD7       345.00]

 No power flow data changed for load "1" at bus 8 [LOAD8       345.00]

 No power flow data changed for load "1" at bus 23 [LOAD23      345.00]

 No power flow data changed for load "1" at bus 16 [LOAD16      345.00]

 No power flow data changed for load "1" at bus 18 [LOAD18      345.00]

 No power flow data changed for load "1" at bus 26 [LOAD26      345.00]

 Power flow data changed for load "1" at bus 29 [LOAD29      345.00]:
 X--ORIGINAL--X  X-NEW VALUE--X  DATA ITEM
    0.00000       -0.205287E-03  PL

 Channel output file is "./Cases/IEEE39_RE.out"

 42 diagonal and 70 off-diagonal elements

 No power flow data changed for load "1" at bus 12 [LOAD12      138.00]

 No power flow data changed for load "1" at bus 7 [LOAD7       345.00]

 No power flow data changed for load "1" at bus 8 [LOAD8       345.00]

 No power flow data changed for load "1" at bus 23 [LOAD23      345.00]

 No power flow data changed for load "1" at bus 16 [LOAD16      345.00]

 No power flow data changed for load "1" at bus 18 [LOAD18      345.00]

 No power flow data changed for load "1" at bus 26 [LOAD26      345.00]

 Power flow data changed for load "1" at bus 29 [LOAD29      345.00]:
 X--ORIGINAL--X  X-NEW VALUE--X  DATA ITEM
  -0.205287E-03     11.5339      PL

 Channel output file is "./Cases/IEEE39_RE.out"

 42 diagonal and 70 off-diagonal elements

 No power flow data changed for load "1" at bus 12 [LOAD12      138.00]

 No power flow data changed for load "1" at bus 7 [LOAD7       345.00]

 No power flow data changed for load "1" at bus 8 [LOAD8       345.00]

 No power flow data changed for load "1" at bus 23 [LOAD23      345.00]

 No power flow data changed for load "1" at bus 16 [LOAD16      345.00]

 No power flow data changed for load "1" at bus 18 [LOAD18      345.00]

 No power flow data changed for load "1" at bus 26 [LOAD26      345.00]

 Power flow data changed for load "1" at bus 29 [LOAD29      345.00]:
 X--ORIGINAL--X  X-NEW VALUE--X  DATA ITEM
    11.5339         30.6383      PL

 Channel output file is "./Cases/IEEE39_RE.out"

 42 diagonal and 70 off-diagonal elements

 No power flow data changed for load "1" at bus 12 [LOAD12      138.00]

 No power flow data changed for load "1" at bus 7 [LOAD7       345.00]

 No power flow data changed for load "1" at bus 8 [LOAD8       345.00]

 No power flow data changed for load "1" at bus 23 [LOAD23      345.00]

 No power flow data changed for load "1" at bus 16 [LOAD16      345.00]

 No power flow data changed for load "1" at bus 18 [LOAD18      345.00]

 No power flow data changed for load "1" at bus 26 [LOAD26      345.00]

 Power flow data changed for load "1" at bus 29 [LOAD29      345.00]:
 X--ORIGINAL--X  X-NEW VALUE--X  DATA ITEM
    30.6383         55.3253      PL

 Channel output file is "./Cases/IEEE39_RE.out"

 42 diagonal and 70 off-diagonal elements

 No power flow data changed for load "1" at bus 12 [LOAD12      138.00]

 No power flow data changed for load "1" at bus 7 [LOAD7       345.00]

 No power flow data changed for load "1" at bus 8 [LOAD8       345.00]

 No power flow data changed for load "1" at bus 23 [LOAD23      345.00]

 No power flow data changed for load "1" at bus 16 [LOAD16      345.00]

 No power flow data changed for load "1" at bus 18 [LOAD18      345.00]

 No power flow data changed for load "1" at bus 26 [LOAD26      345.00]

 Power flow data changed for load "1" at bus 29 [LOAD29      345.00]:
 X--ORIGINAL--X  X-NEW VALUE--X  DATA ITEM
    55.3253         83.2787      PL

 Channel output file is "./Cases/IEEE39_RE.out"

 42 diagonal and 70 off-diagonal elements

 No power flow data changed for load "1" at bus 12 [LOAD12      138.00]

 No power flow data changed for load "1" at bus 7 [LOAD7       345.00]

 No power flow data changed for load "1" at bus 8 [LOAD8       345.00]

 No power flow data changed for load "1" at bus 23 [LOAD23      345.00]

 No power flow data changed for load "1" at bus 16 [LOAD16      345.00]

 No power flow data changed for load "1" at bus 18 [LOAD18      345.00]

 No power flow data changed for load "1" at bus 26 [LOAD26      345.00]

 Power flow data changed for load "1" at bus 29 [LOAD29      345.00]:
 X--ORIGINAL--X  X-NEW VALUE--X  DATA ITEM
    83.2787         112.225      PL

 Channel output file is "./Cases/IEEE39_RE.out"

 42 diagonal and 70 off-diagonal elements

 No power flow data changed for load "1" at bus 12 [LOAD12      138.00]

 No power flow data changed for load "1" at bus 7 [LOAD7       345.00]

 No power flow data changed for load "1" at bus 8 [LOAD8       345.00]

 No power flow data changed for load "1" at bus 23 [LOAD23      345.00]

 No power flow data changed for load "1" at bus 16 [LOAD16      345.00]

 No power flow data changed for load "1" at bus 18 [LOAD18      345.00]

 No power flow data changed for load "1" at bus 26 [LOAD26      345.00]

 Power flow data changed for load "1" at bus 29 [LOAD29      345.00]:
 X--ORIGINAL--X  X-NEW VALUE--X  DATA ITEM
    112.225         140.229      PL

 Channel output file is "./Cases/IEEE39_RE.out"

 42 diagonal and 70 off-diagonal elements

 No power flow data changed for load "1" at bus 12 [LOAD12      138.00]

 No power flow data changed for load "1" at bus 7 [LOAD7       345.00]

 No power flow data changed for load "1" at bus 8 [LOAD8       345.00]

 No power flow data changed for load "1" at bus 23 [LOAD23      345.00]

 No power flow data changed for load "1" at bus 16 [LOAD16      345.00]

 No power flow data changed for load "1" at bus 18 [LOAD18      345.00]

 No power flow data changed for load "1" at bus 26 [LOAD26      345.00]

 Power flow data changed for load "1" at bus 29 [LOAD29      345.00]:
 X--ORIGINAL--X  X-NEW VALUE--X  DATA ITEM
    140.229         165.814      PL

 Channel output file is "./Cases/IEEE39_RE.out"

 42 diagonal and 70 off-diagonal elements

 No power flow data changed for load "1" at bus 12 [LOAD12      138.00]

 No power flow data changed for load "1" at bus 7 [LOAD7       345.00]

 No power flow data changed for load "1" at bus 8 [LOAD8       345.00]

 No power flow data changed for load "1" at bus 23 [LOAD23      345.00]

 No power flow data changed for load "1" at bus 16 [LOAD16      345.00]

 No power flow data changed for load "1" at bus 18 [LOAD18      345.00]

 No power flow data changed for load "1" at bus 26 [LOAD26      345.00]

 Power flow data changed for load "1" at bus 29 [LOAD29      345.00]:
 X--ORIGINAL--X  X-NEW VALUE--X  DATA ITEM
    165.814         187.880      PL

 Channel output file is "./Cases/IEEE39_RE.out"

 42 diagonal and 70 off-diagonal elements

 No power flow data changed for load "1" at bus 12 [LOAD12      138.00]

 No power flow data changed for load "1" at bus 7 [LOAD7       345.00]

 No power flow data changed for load "1" at bus 8 [LOAD8       345.00]

 No power flow data changed for load "1" at bus 23 [LOAD23      345.00]

 No power flow data changed for load "1" at bus 16 [LOAD16      345.00]

 No power flow data changed for load "1" at bus 18 [LOAD18      345.00]

 No power flow data changed for load "1" at bus 26 [LOAD26      345.00]

 Power flow data changed for load "1" at bus 29 [LOAD29      345.00]:
 X--ORIGINAL--X  X-NEW VALUE--X  DATA ITEM
    187.880         205.465      PL

 Channel output file is "./Cases/IEEE39_RE.out"

 42 diagonal and 70 off-diagonal elements
 LTC DELAY TIMER STARTED AT                24 LOAD24       345.00 1  V= 1.0000 AT TIME=   0.980

 No power flow data changed for load "1" at bus 12 [LOAD12      138.00]

 No power flow data changed for load "1" at bus 7 [LOAD7       345.00]

 No power flow data changed for load "1" at bus 8 [LOAD8       345.00]

 No power flow data changed for load "1" at bus 23 [LOAD23      345.00]

 No power flow data changed for load "1" at bus 16 [LOAD16      345.00]

 No power flow data changed for load "1" at bus 18 [LOAD18      345.00]

 No power flow data changed for load "1" at bus 26 [LOAD26      345.00]

 Power flow data changed for load "1" at bus 29 [LOAD29      345.00]:
 X--ORIGINAL--X  X-NEW VALUE--X  DATA ITEM
    205.465         217.530      PL

 Channel output file is "./Cases/IEEE39_RE.out"

 42 diagonal and 70 off-diagonal elements

 No power flow data changed for load "1" at bus 12 [LOAD12      138.00]

 No power flow data changed for load "1" at bus 7 [LOAD7       345.00]

 No power flow data changed for load "1" at bus 8 [LOAD8       345.00]

 No power flow data changed for load "1" at bus 23 [LOAD23      345.00]

 No power flow data changed for load "1" at bus 16 [LOAD16      345.00]

 No power flow data changed for load "1" at bus 18 [LOAD18      345.00]

 No power flow data changed for load "1" at bus 26 [LOAD26      345.00]

 Power flow data changed for load "1" at bus 29 [LOAD29      345.00]:
 X--ORIGINAL--X  X-NEW VALUE--X  DATA ITEM
    217.530         222.946      PL

 Channel output file is "./Cases/IEEE39_RE.out"

 42 diagonal and 70 off-diagonal elements
 LTC DELAY TIMER STARTED AT                15 LOAD15       345.00 1  V= 1.0000 AT TIME=   1.176

 No power flow data changed for load "1" at bus 12 [LOAD12      138.00]

 No power flow data changed for load "1" at bus 7 [LOAD7       345.00]

 No power flow data changed for load "1" at bus 8 [LOAD8       345.00]

 No power flow data changed for load "1" at bus 23 [LOAD23      345.00]

 No power flow data changed for load "1" at bus 16 [LOAD16      345.00]

 No power flow data changed for load "1" at bus 18 [LOAD18      345.00]

 No power flow data changed for load "1" at bus 26 [LOAD26      345.00]

 Power flow data changed for load "1" at bus 29 [LOAD29      345.00]:
 X--ORIGINAL--X  X-NEW VALUE--X  DATA ITEM
    222.946         220.669      PL

 Channel output file is "./Cases/IEEE39_RE.out"

 42 diagonal and 70 off-diagonal elements

 No power flow data changed for load "1" at bus 12 [LOAD12      138.00]

 No power flow data changed for load "1" at bus 7 [LOAD7       345.00]

 No power flow data changed for load "1" at bus 8 [LOAD8       345.00]

 No power flow data changed for load "1" at bus 23 [LOAD23      345.00]

 No power flow data changed for load "1" at bus 16 [LOAD16      345.00]

 No power flow data changed for load "1" at bus 18 [LOAD18      345.00]

 No power flow data changed for load "1" at bus 26 [LOAD26      345.00]

 Power flow data changed for load "1" at bus 29 [LOAD29      345.00]:
 X--ORIGINAL--X  X-NEW VALUE--X  DATA ITEM
    220.669         210.012      PL

 Channel output file is "./Cases/IEEE39_RE.out"

 42 diagonal and 70 off-diagonal elements

 No power flow data changed for load "1" at bus 12 [LOAD12      138.00]

 No power flow data changed for load "1" at bus 7 [LOAD7       345.00]

 No power flow data changed for load "1" at bus 8 [LOAD8       345.00]

 No power flow data changed for load "1" at bus 23 [LOAD23      345.00]

 No power flow data changed for load "1" at bus 16 [LOAD16      345.00]

 No power flow data changed for load "1" at bus 18 [LOAD18      345.00]

 No power flow data changed for load "1" at bus 26 [LOAD26      345.00]

 Power flow data changed for load "1" at bus 29 [LOAD29      345.00]:
 X--ORIGINAL--X  X-NEW VALUE--X  DATA ITEM
    210.012         190.879      PL

 Channel output file is "./Cases/IEEE39_RE.out"

 42 diagonal and 70 off-diagonal elements

 No power flow data changed for load "1" at bus 12 [LOAD12      138.00]

 No power flow data changed for load "1" at bus 7 [LOAD7       345.00]

 No power flow data changed for load "1" at bus 8 [LOAD8       345.00]

 No power flow data changed for load "1" at bus 23 [LOAD23      345.00]

 No power flow data changed for load "1" at bus 16 [LOAD16      345.00]

 No power flow data changed for load "1" at bus 18 [LOAD18      345.00]

 No power flow data changed for load "1" at bus 26 [LOAD26      345.00]

 Power flow data changed for load "1" at bus 29 [LOAD29      345.00]:
 X--ORIGINAL--X  X-NEW VALUE--X  DATA ITEM
    190.879         163.854      PL

 Channel output file is "./Cases/IEEE39_RE.out"

 42 diagonal and 70 off-diagonal elements

 No power flow data changed for load "1" at bus 12 [LOAD12      138.00]

 No power flow data changed for load "1" at bus 7 [LOAD7       345.00]

 No power flow data changed for load "1" at bus 8 [LOAD8       345.00]

 No power flow data changed for load "1" at bus 23 [LOAD23      345.00]

 No power flow data changed for load "1" at bus 16 [LOAD16      345.00]

 No power flow data changed for load "1" at bus 18 [LOAD18      345.00]

 No power flow data changed for load "1" at bus 26 [LOAD26      345.00]

 Power flow data changed for load "1" at bus 29 [LOAD29      345.00]:
 X--ORIGINAL--X  X-NEW VALUE--X  DATA ITEM
    163.854         130.052      PL

 Channel output file is "./Cases/IEEE39_RE.out"

 42 diagonal and 70 off-diagonal elements

 No power flow data changed for load "1" at bus 12 [LOAD12      138.00]

 No power flow data changed for load "1" at bus 7 [LOAD7       345.00]

 No power flow data changed for load "1" at bus 8 [LOAD8       345.00]

 No power flow data changed for load "1" at bus 23 [LOAD23      345.00]

 No power flow data changed for load "1" at bus 16 [LOAD16      345.00]

 No power flow data changed for load "1" at bus 18 [LOAD18      345.00]

 No power flow data changed for load "1" at bus 26 [LOAD26      345.00]

 Power flow data changed for load "1" at bus 29 [LOAD29      345.00]:
 X--ORIGINAL--X  X-NEW VALUE--X  DATA ITEM
    130.052         90.8304      PL

 Channel output file is "./Cases/IEEE39_RE.out"

 42 diagonal and 70 off-diagonal elements

 No power flow data changed for load "1" at bus 12 [LOAD12      138.00]

 No power flow data changed for load "1" at bus 7 [LOAD7       345.00]

 No power flow data changed for load "1" at bus 8 [LOAD8       345.00]

 No power flow data changed for load "1" at bus 23 [LOAD23      345.00]

 No power flow data changed for load "1" at bus 16 [LOAD16      345.00]

 No power flow data changed for load "1" at bus 18 [LOAD18      345.00]

 No power flow data changed for load "1" at bus 26 [LOAD26      345.00]

 Power flow data changed for load "1" at bus 29 [LOAD29      345.00]:
 X--ORIGINAL--X  X-NEW VALUE--X  DATA ITEM
    90.8304         47.5750      PL

 Channel output file is "./Cases/IEEE39_RE.out"

 42 diagonal and 70 off-diagonal elements

 No power flow data changed for load "1" at bus 12 [LOAD12      138.00]

 No power flow data changed for load "1" at bus 7 [LOAD7       345.00]

 No power flow data changed for load "1" at bus 8 [LOAD8       345.00]

 No power flow data changed for load "1" at bus 23 [LOAD23      345.00]

 No power flow data changed for load "1" at bus 16 [LOAD16      345.00]

 No power flow data changed for load "1" at bus 18 [LOAD18      345.00]

 No power flow data changed for load "1" at bus 26 [LOAD26      345.00]

 Power flow data changed for load "1" at bus 29 [LOAD29      345.00]:
 X--ORIGINAL--X  X-NEW VALUE--X  DATA ITEM
    47.5750         1.70032      PL

 Channel output file is "./Cases/IEEE39_RE.out"

 42 diagonal and 70 off-diagonal elements

 No power flow data changed for load "1" at bus 12 [LOAD12      138.00]

 No power flow data changed for load "1" at bus 7 [LOAD7       345.00]

 No power flow data changed for load "1" at bus 8 [LOAD8       345.00]

 No power flow data changed for load "1" at bus 23 [LOAD23      345.00]

 No power flow data changed for load "1" at bus 16 [LOAD16      345.00]

 No power flow data changed for load "1" at bus 18 [LOAD18      345.00]

 No power flow data changed for load "1" at bus 26 [LOAD26      345.00]

 Power flow data changed for load "1" at bus 29 [LOAD29      345.00]:
 X--ORIGINAL--X  X-NEW VALUE--X  DATA ITEM
    1.70032        -45.2149      PL

 Channel output file is "./Cases/IEEE39_RE.out"

 42 diagonal and 70 off-diagonal elements

 No power flow data changed for load "1" at bus 12 [LOAD12      138.00]

 No power flow data changed for load "1" at bus 7 [LOAD7       345.00]

 No power flow data changed for load "1" at bus 8 [LOAD8       345.00]

 No power flow data changed for load "1" at bus 23 [LOAD23      345.00]

 No power flow data changed for load "1" at bus 16 [LOAD16      345.00]

 No power flow data changed for load "1" at bus 18 [LOAD18      345.00]

 No power flow data changed for load "1" at bus 26 [LOAD26      345.00]

 Power flow data changed for load "1" at bus 29 [LOAD29      345.00]:
 X--ORIGINAL--X  X-NEW VALUE--X  DATA ITEM
   -45.2149        -91.3071      PL

 Channel output file is "./Cases/IEEE39_RE.out"

 42 diagonal and 70 off-diagonal elements

 No power flow data changed for load "1" at bus 12 [LOAD12      138.00]

 No power flow data changed for load "1" at bus 7 [LOAD7       345.00]

 No power flow data changed for load "1" at bus 8 [LOAD8       345.00]

 No power flow data changed for load "1" at bus 23 [LOAD23      345.00]

 No power flow data changed for load "1" at bus 16 [LOAD16      345.00]

 No power flow data changed for load "1" at bus 18 [LOAD18      345.00]

 No power flow data changed for load "1" at bus 26 [LOAD26      345.00]

 Power flow data changed for load "1" at bus 29 [LOAD29      345.00]:
 X--ORIGINAL--X  X-NEW VALUE--X  DATA ITEM
   -91.3071        -134.434      PL

 Channel output file is "./Cases/IEEE39_RE.out"

 42 diagonal and 70 off-diagonal elements

 No power flow data changed for load "1" at bus 12 [LOAD12      138.00]

 No power flow data changed for load "1" at bus 7 [LOAD7       345.00]

 No power flow data changed for load "1" at bus 8 [LOAD8       345.00]

 No power flow data changed for load "1" at bus 23 [LOAD23      345.00]

 No power flow data changed for load "1" at bus 16 [LOAD16      345.00]

 No power flow data changed for load "1" at bus 18 [LOAD18      345.00]

 No power flow data changed for load "1" at bus 26 [LOAD26      345.00]

 Power flow data changed for load "1" at bus 29 [LOAD29      345.00]:
 X--ORIGINAL--X  X-NEW VALUE--X  DATA ITEM
   -134.434        -172.350      PL

 Channel output file is "./Cases/IEEE39_RE.out"

 42 diagonal and 70 off-diagonal elements
     LTC DELAY TIMER RESET

 No power flow data changed for load "1" at bus 12 [LOAD12      138.00]

 No power flow data changed for load "1" at bus 7 [LOAD7       345.00]

 No power flow data changed for load "1" at bus 8 [LOAD8       345.00]

 No power flow data changed for load "1" at bus 23 [LOAD23      345.00]

 No power flow data changed for load "1" at bus 16 [LOAD16      345.00]

 No power flow data changed for load "1" at bus 18 [LOAD18      345.00]

 No power flow data changed for load "1" at bus 26 [LOAD26      345.00]

 Power flow data changed for load "1" at bus 29 [LOAD29      345.00]:
 X--ORIGINAL--X  X-NEW VALUE--X  DATA ITEM
   -172.350        -203.000      PL

 Channel output file is "./Cases/IEEE39_RE.out"

 42 diagonal and 70 off-diagonal elements
     LTC DELAY TIMER RESET

 No power flow data changed for load "1" at bus 12 [LOAD12      138.00]

 No power flow data changed for load "1" at bus 7 [LOAD7       345.00]

 No power flow data changed for load "1" at bus 8 [LOAD8       345.00]

 No power flow data changed for load "1" at bus 23 [LOAD23      345.00]

 No power flow data changed for load "1" at bus 16 [LOAD16      345.00]

 No power flow data changed for load "1" at bus 18 [LOAD18      345.00]

 No power flow data changed for load "1" at bus 26 [LOAD26      345.00]

 Power flow data changed for load "1" at bus 29 [LOAD29      345.00]:
 X--ORIGINAL--X  X-NEW VALUE--X  DATA ITEM
   -203.000        -224.857      PL

 Channel output file is "./Cases/IEEE39_RE.out"

 42 diagonal and 70 off-diagonal elements

 No power flow data changed for load "1" at bus 12 [LOAD12      138.00]

 No power flow data changed for load "1" at bus 7 [LOAD7       345.00]

 No power flow data changed for load "1" at bus 8 [LOAD8       345.00]

 No power flow data changed for load "1" at bus 23 [LOAD23      345.00]

 No power flow data changed for load "1" at bus 16 [LOAD16      345.00]

 No power flow data changed for load "1" at bus 18 [LOAD18      345.00]

 No power flow data changed for load "1" at bus 26 [LOAD26      345.00]

 Power flow data changed for load "1" at bus 29 [LOAD29      345.00]:
 X--ORIGINAL--X  X-NEW VALUE--X  DATA ITEM
   -224.857        -237.136      PL

 Channel output file is "./Cases/IEEE39_RE.out"

 42 diagonal and 70 off-diagonal elements

 No power flow data changed for load "1" at bus 12 [LOAD12      138.00]

 No power flow data changed for load "1" at bus 7 [LOAD7       345.00]

 No power flow data changed for load "1" at bus 8 [LOAD8       345.00]

 No power flow data changed for load "1" at bus 23 [LOAD23      345.00]

 No power flow data changed for load "1" at bus 16 [LOAD16      345.00]

 No power flow data changed for load "1" at bus 18 [LOAD18      345.00]

 No power flow data changed for load "1" at bus 26 [LOAD26      345.00]

 Power flow data changed for load "1" at bus 29 [LOAD29      345.00]:
 X--ORIGINAL--X  X-NEW VALUE--X  DATA ITEM
   -237.136        -239.806      PL

 Channel output file is "./Cases/IEEE39_RE.out"

 42 diagonal and 70 off-diagonal elements
 LTC DELAY TIMER STARTED AT                15 LOAD15       345.00 1  V= 1.0200 AT TIME=   2.752
 LTC DELAY TIMER STARTED AT                24 LOAD24       345.00 1  V= 1.0200 AT TIME=   2.774

 No power flow data changed for load "1" at bus 12 [LOAD12      138.00]

 No power flow data changed for load "1" at bus 7 [LOAD7       345.00]

 No power flow data changed for load "1" at bus 8 [LOAD8       345.00]

 No power flow data changed for load "1" at bus 23 [LOAD23      345.00]

 No power flow data changed for load "1" at bus 16 [LOAD16      345.00]

 No power flow data changed for load "1" at bus 18 [LOAD18      345.00]

 No power flow data changed for load "1" at bus 26 [LOAD26      345.00]

 Power flow data changed for load "1" at bus 29 [LOAD29      345.00]:
 X--ORIGINAL--X  X-NEW VALUE--X  DATA ITEM
   -239.806        -233.355      PL

 Channel output file is "./Cases/IEEE39_RE.out"

 42 diagonal and 70 off-diagonal elements

 No power flow data changed for load "1" at bus 12 [LOAD12      138.00]

 No power flow data changed for load "1" at bus 7 [LOAD7       345.00]

 No power flow data changed for load "1" at bus 8 [LOAD8       345.00]

 No power flow data changed for load "1" at bus 23 [LOAD23      345.00]

 No power flow data changed for load "1" at bus 16 [LOAD16      345.00]

 No power flow data changed for load "1" at bus 18 [LOAD18      345.00]

 No power flow data changed for load "1" at bus 26 [LOAD26      345.00]

 Power flow data changed for load "1" at bus 29 [LOAD29      345.00]:
 X--ORIGINAL--X  X-NEW VALUE--X  DATA ITEM
   -233.354        -218.505      PL

 Channel output file is "./Cases/IEEE39_RE.out"

 42 diagonal and 70 off-diagonal elements

 No power flow data changed for load "1" at bus 12 [LOAD12      138.00]

 No power flow data changed for load "1" at bus 7 [LOAD7       345.00]

 No power flow data changed for load "1" at bus 8 [LOAD8       345.00]

 No power flow data changed for load "1" at bus 23 [LOAD23      345.00]

 No power flow data changed for load "1" at bus 16 [LOAD16      345.00]

 No power flow data changed for load "1" at bus 18 [LOAD18      345.00]

 No power flow data changed for load "1" at bus 26 [LOAD26      345.00]

 Power flow data changed for load "1" at bus 29 [LOAD29      345.00]:
 X--ORIGINAL--X  X-NEW VALUE--X  DATA ITEM
   -218.505        -196.059      PL

 Channel output file is "./Cases/IEEE39_RE.out"

 42 diagonal and 70 off-diagonal elements

 No power flow data changed for load "1" at bus 12 [LOAD12      138.00]

 No power flow data changed for load "1" at bus 7 [LOAD7       345.00]

 No power flow data changed for load "1" at bus 8 [LOAD8       345.00]

 No power flow data changed for load "1" at bus 23 [LOAD23      345.00]

 No power flow data changed for load "1" at bus 16 [LOAD16      345.00]

 No power flow data changed for load "1" at bus 18 [LOAD18      345.00]

 No power flow data changed for load "1" at bus 26 [LOAD26      345.00]

 Power flow data changed for load "1" at bus 29 [LOAD29      345.00]:
 X--ORIGINAL--X  X-NEW VALUE--X  DATA ITEM
   -196.059        -166.903      PL

 Channel output file is "./Cases/IEEE39_RE.out"

 42 diagonal and 70 off-diagonal elements

 No power flow data changed for load "1" at bus 12 [LOAD12      138.00]

 No power flow data changed for load "1" at bus 7 [LOAD7       345.00]

 No power flow data changed for load "1" at bus 8 [LOAD8       345.00]

 No power flow data changed for load "1" at bus 23 [LOAD23      345.00]

 No power flow data changed for load "1" at bus 16 [LOAD16      345.00]

 No power flow data changed for load "1" at bus 18 [LOAD18      345.00]

 No power flow data changed for load "1" at bus 26 [LOAD26      345.00]

 Power flow data changed for load "1" at bus 29 [LOAD29      345.00]:
 X--ORIGINAL--X  X-NEW VALUE--X  DATA ITEM
   -166.903        -132.045      PL

 Channel output file is "./Cases/IEEE39_RE.out"

 42 diagonal and 70 off-diagonal elements

 No power flow data changed for load "1" at bus 12 [LOAD12      138.00]

 No power flow data changed for load "1" at bus 7 [LOAD7       345.00]

 No power flow data changed for load "1" at bus 8 [LOAD8       345.00]

 No power flow data changed for load "1" at bus 23 [LOAD23      345.00]

 No power flow data changed for load "1" at bus 16 [LOAD16      345.00]

 No power flow data changed for load "1" at bus 18 [LOAD18      345.00]

 No power flow data changed for load "1" at bus 26 [LOAD26      345.00]

 Power flow data changed for load "1" at bus 29 [LOAD29      345.00]:
 X--ORIGINAL--X  X-NEW VALUE--X  DATA ITEM
   -132.045        -92.5613      PL

 Channel output file is "./Cases/IEEE39_RE.out"

 42 diagonal and 70 off-diagonal elements

 No power flow data changed for load "1" at bus 12 [LOAD12      138.00]

 No power flow data changed for load "1" at bus 7 [LOAD7       345.00]

 No power flow data changed for load "1" at bus 8 [LOAD8       345.00]

 No power flow data changed for load "1" at bus 23 [LOAD23      345.00]

 No power flow data changed for load "1" at bus 16 [LOAD16      345.00]

 No power flow data changed for load "1" at bus 18 [LOAD18      345.00]

 No power flow data changed for load "1" at bus 26 [LOAD26      345.00]

 Power flow data changed for load "1" at bus 29 [LOAD29      345.00]:
 X--ORIGINAL--X  X-NEW VALUE--X  DATA ITEM
   -92.5613        -49.4758      PL

 Channel output file is "./Cases/IEEE39_RE.out"

 42 diagonal and 70 off-diagonal elements

 No power flow data changed for load "1" at bus 12 [LOAD12      138.00]

 No power flow data changed for load "1" at bus 7 [LOAD7       345.00]

 No power flow data changed for load "1" at bus 8 [LOAD8       345.00]

 No power flow data changed for load "1" at bus 23 [LOAD23      345.00]

 No power flow data changed for load "1" at bus 16 [LOAD16      345.00]

 No power flow data changed for load "1" at bus 18 [LOAD18      345.00]

 No power flow data changed for load "1" at bus 26 [LOAD26      345.00]

 Power flow data changed for load "1" at bus 29 [LOAD29      345.00]:
 X--ORIGINAL--X  X-NEW VALUE--X  DATA ITEM
   -49.4758        -3.73573      PL

 Channel output file is "./Cases/IEEE39_RE.out"

 42 diagonal and 70 off-diagonal elements

 No power flow data changed for load "1" at bus 12 [LOAD12      138.00]

 No power flow data changed for load "1" at bus 7 [LOAD7       345.00]

 No power flow data changed for load "1" at bus 8 [LOAD8       345.00]

 No power flow data changed for load "1" at bus 23 [LOAD23      345.00]

 No power flow data changed for load "1" at bus 16 [LOAD16      345.00]

 No power flow data changed for load "1" at bus 18 [LOAD18      345.00]

 No power flow data changed for load "1" at bus 26 [LOAD26      345.00]

 Power flow data changed for load "1" at bus 29 [LOAD29      345.00]:
 X--ORIGINAL--X  X-NEW VALUE--X  DATA ITEM
   -3.73573         43.7000      PL

 Channel output file is "./Cases/IEEE39_RE.out"

 42 diagonal and 70 off-diagonal elements

 No power flow data changed for load "1" at bus 12 [LOAD12      138.00]

 No power flow data changed for load "1" at bus 7 [LOAD7       345.00]

 No power flow data changed for load "1" at bus 8 [LOAD8       345.00]

 No power flow data changed for load "1" at bus 23 [LOAD23      345.00]

 No power flow data changed for load "1" at bus 16 [LOAD16      345.00]

 No power flow data changed for load "1" at bus 18 [LOAD18      345.00]

 No power flow data changed for load "1" at bus 26 [LOAD26      345.00]

 Power flow data changed for load "1" at bus 29 [LOAD29      345.00]:
 X--ORIGINAL--X  X-NEW VALUE--X  DATA ITEM
    43.7000         91.7305      PL

 Channel output file is "./Cases/IEEE39_RE.out"

 42 diagonal and 70 off-diagonal elements

 No power flow data changed for load "1" at bus 12 [LOAD12      138.00]

 No power flow data changed for load "1" at bus 7 [LOAD7       345.00]

 No power flow data changed for load "1" at bus 8 [LOAD8       345.00]

 No power flow data changed for load "1" at bus 23 [LOAD23      345.00]

 No power flow data changed for load "1" at bus 16 [LOAD16      345.00]

 No power flow data changed for load "1" at bus 18 [LOAD18      345.00]

 No power flow data changed for load "1" at bus 26 [LOAD26      345.00]

 Power flow data changed for load "1" at bus 29 [LOAD29      345.00]:
 X--ORIGINAL--X  X-NEW VALUE--X  DATA ITEM
    91.7305         139.003      PL

 Channel output file is "./Cases/IEEE39_RE.out"

 42 diagonal and 70 off-diagonal elements

 No power flow data changed for load "1" at bus 12 [LOAD12      138.00]

 No power flow data changed for load "1" at bus 7 [LOAD7       345.00]

 No power flow data changed for load "1" at bus 8 [LOAD8       345.00]

 No power flow data changed for load "1" at bus 23 [LOAD23      345.00]

 No power flow data changed for load "1" at bus 16 [LOAD16      345.00]

 No power flow data changed for load "1" at bus 18 [LOAD18      345.00]

 No power flow data changed for load "1" at bus 26 [LOAD26      345.00]

 Power flow data changed for load "1" at bus 29 [LOAD29      345.00]:
 X--ORIGINAL--X  X-NEW VALUE--X  DATA ITEM
    139.003         183.834      PL

 Channel output file is "./Cases/IEEE39_RE.out"

 42 diagonal and 70 off-diagonal elements

 No power flow data changed for load "1" at bus 12 [LOAD12      138.00]

 No power flow data changed for load "1" at bus 7 [LOAD7       345.00]

 No power flow data changed for load "1" at bus 8 [LOAD8       345.00]

 No power flow data changed for load "1" at bus 23 [LOAD23      345.00]

 No power flow data changed for load "1" at bus 16 [LOAD16      345.00]

 No power flow data changed for load "1" at bus 18 [LOAD18      345.00]

 No power flow data changed for load "1" at bus 26 [LOAD26      345.00]

 Power flow data changed for load "1" at bus 29 [LOAD29      345.00]:
 X--ORIGINAL--X  X-NEW VALUE--X  DATA ITEM
    183.834         224.205      PL

 Channel output file is "./Cases/IEEE39_RE.out"

 42 diagonal and 70 off-diagonal elements
     LTC DELAY TIMER RESET

 No power flow data changed for load "1" at bus 12 [LOAD12      138.00]

 No power flow data changed for load "1" at bus 7 [LOAD7       345.00]

 No power flow data changed for load "1" at bus 8 [LOAD8       345.00]

 No power flow data changed for load "1" at bus 23 [LOAD23      345.00]

 No power flow data changed for load "1" at bus 16 [LOAD16      345.00]

 No power flow data changed for load "1" at bus 18 [LOAD18      345.00]

 No power flow data changed for load "1" at bus 26 [LOAD26      345.00]

 Power flow data changed for load "1" at bus 29 [LOAD29      345.00]:
 X--ORIGINAL--X  X-NEW VALUE--X  DATA ITEM
    224.205         257.850      PL

 Channel output file is "./Cases/IEEE39_RE.out"

 42 diagonal and 70 off-diagonal elements
     LTC DELAY TIMER RESET

 No power flow data changed for load "1" at bus 12 [LOAD12      138.00]

 No power flow data changed for load "1" at bus 7 [LOAD7       345.00]

 No power flow data changed for load "1" at bus 8 [LOAD8       345.00]

 No power flow data changed for load "1" at bus 23 [LOAD23      345.00]

 No power flow data changed for load "1" at bus 16 [LOAD16      345.00]

 No power flow data changed for load "1" at bus 18 [LOAD18      345.00]

 No power flow data changed for load "1" at bus 26 [LOAD26      345.00]

 Power flow data changed for load "1" at bus 29 [LOAD29      345.00]:
 X--ORIGINAL--X  X-NEW VALUE--X  DATA ITEM
    257.850         282.432      PL

 Channel output file is "./Cases/IEEE39_RE.out"

 42 diagonal and 70 off-diagonal elements
 LTC DELAY TIMER STARTED AT                24 LOAD24       345.00 1  V= 0.9999 AT TIME=   4.282

 No power flow data changed for load "1" at bus 12 [LOAD12      138.00]

 No power flow data changed for load "1" at bus 7 [LOAD7       345.00]

 No power flow data changed for load "1" at bus 8 [LOAD8       345.00]

 No power flow data changed for load "1" at bus 23 [LOAD23      345.00]

 No power flow data changed for load "1" at bus 16 [LOAD16      345.00]

 No power flow data changed for load "1" at bus 18 [LOAD18      345.00]

 No power flow data changed for load "1" at bus 26 [LOAD26      345.00]

 Power flow data changed for load "1" at bus 29 [LOAD29      345.00]:
 X--ORIGINAL--X  X-NEW VALUE--X  DATA ITEM
    282.432         295.850      PL

 Channel output file is "./Cases/IEEE39_RE.out"

 42 diagonal and 70 off-diagonal elements
 LTC DELAY TIMER STARTED AT                15 LOAD15       345.00 1  V= 0.9999 AT TIME=   4.332

 No power flow data changed for load "1" at bus 12 [LOAD12      138.00]

 No power flow data changed for load "1" at bus 7 [LOAD7       345.00]

 No power flow data changed for load "1" at bus 8 [LOAD8       345.00]

 No power flow data changed for load "1" at bus 23 [LOAD23      345.00]

 No power flow data changed for load "1" at bus 16 [LOAD16      345.00]

 No power flow data changed for load "1" at bus 18 [LOAD18      345.00]

 No power flow data changed for load "1" at bus 26 [LOAD26      345.00]

 Power flow data changed for load "1" at bus 29 [LOAD29      345.00]:
 X--ORIGINAL--X  X-NEW VALUE--X  DATA ITEM
    295.850         296.668      PL

 Channel output file is "./Cases/IEEE39_RE.out"

 42 diagonal and 70 off-diagonal elements

 No power flow data changed for load "1" at bus 12 [LOAD12      138.00]

 No power flow data changed for load "1" at bus 7 [LOAD7       345.00]

 No power flow data changed for load "1" at bus 8 [LOAD8       345.00]

 No power flow data changed for load "1" at bus 23 [LOAD23      345.00]

 No power flow data changed for load "1" at bus 16 [LOAD16      345.00]

 No power flow data changed for load "1" at bus 18 [LOAD18      345.00]

 No power flow data changed for load "1" at bus 26 [LOAD26      345.00]

 Power flow data changed for load "1" at bus 29 [LOAD29      345.00]:
 X--ORIGINAL--X  X-NEW VALUE--X  DATA ITEM
    296.668         284.532      PL

 Channel output file is "./Cases/IEEE39_RE.out"

 42 diagonal and 70 off-diagonal elements

 No power flow data changed for load "1" at bus 12 [LOAD12      138.00]

 No power flow data changed for load "1" at bus 7 [LOAD7       345.00]

 No power flow data changed for load "1" at bus 8 [LOAD8       345.00]

 No power flow data changed for load "1" at bus 23 [LOAD23      345.00]

 No power flow data changed for load "1" at bus 16 [LOAD16      345.00]

 No power flow data changed for load "1" at bus 18 [LOAD18      345.00]

 No power flow data changed for load "1" at bus 26 [LOAD26      345.00]

 Power flow data changed for load "1" at bus 29 [LOAD29      345.00]:
 X--ORIGINAL--X  X-NEW VALUE--X  DATA ITEM
    284.532         260.374      PL

 Channel output file is "./Cases/IEEE39_RE.out"

 42 diagonal and 70 off-diagonal elements

 No power flow data changed for load "1" at bus 12 [LOAD12      138.00]

 No power flow data changed for load "1" at bus 7 [LOAD7       345.00]

 No power flow data changed for load "1" at bus 8 [LOAD8       345.00]

 No power flow data changed for load "1" at bus 23 [LOAD23      345.00]

 No power flow data changed for load "1" at bus 16 [LOAD16      345.00]

 No power flow data changed for load "1" at bus 18 [LOAD18      345.00]

 No power flow data changed for load "1" at bus 26 [LOAD26      345.00]

 Power flow data changed for load "1" at bus 29 [LOAD29      345.00]:
 X--ORIGINAL--X  X-NEW VALUE--X  DATA ITEM
    260.374         226.293      PL

 Channel output file is "./Cases/IEEE39_RE.out"

 42 diagonal and 70 off-diagonal elements

 No power flow data changed for load "1" at bus 12 [LOAD12      138.00]

 No power flow data changed for load "1" at bus 7 [LOAD7       345.00]

 No power flow data changed for load "1" at bus 8 [LOAD8       345.00]

 No power flow data changed for load "1" at bus 23 [LOAD23      345.00]

 No power flow data changed for load "1" at bus 16 [LOAD16      345.00]

 No power flow data changed for load "1" at bus 18 [LOAD18      345.00]

 No power flow data changed for load "1" at bus 26 [LOAD26      345.00]

 Power flow data changed for load "1" at bus 29 [LOAD29      345.00]:
 X--ORIGINAL--X  X-NEW VALUE--X  DATA ITEM
    226.293         185.200      PL

 Channel output file is "./Cases/IEEE39_RE.out"

 42 diagonal and 70 off-diagonal elements

 No power flow data changed for load "1" at bus 12 [LOAD12      138.00]

 No power flow data changed for load "1" at bus 7 [LOAD7       345.00]

 No power flow data changed for load "1" at bus 8 [LOAD8       345.00]

 No power flow data changed for load "1" at bus 23 [LOAD23      345.00]

 No power flow data changed for load "1" at bus 16 [LOAD16      345.00]

 No power flow data changed for load "1" at bus 18 [LOAD18      345.00]

 No power flow data changed for load "1" at bus 26 [LOAD26      345.00]

 Power flow data changed for load "1" at bus 29 [LOAD29      345.00]:
 X--ORIGINAL--X  X-NEW VALUE--X  DATA ITEM
    185.200         140.387      PL

 Channel output file is "./Cases/IEEE39_RE.out"

 42 diagonal and 70 off-diagonal elements

 No power flow data changed for load "1" at bus 12 [LOAD12      138.00]

 No power flow data changed for load "1" at bus 7 [LOAD7       345.00]

 No power flow data changed for load "1" at bus 8 [LOAD8       345.00]

 No power flow data changed for load "1" at bus 23 [LOAD23      345.00]

 No power flow data changed for load "1" at bus 16 [LOAD16      345.00]

 No power flow data changed for load "1" at bus 18 [LOAD18      345.00]

 No power flow data changed for load "1" at bus 26 [LOAD26      345.00]

 Power flow data changed for load "1" at bus 29 [LOAD29      345.00]:
 X--ORIGINAL--X  X-NEW VALUE--X  DATA ITEM
    140.387         95.2379      PL

 Channel output file is "./Cases/IEEE39_RE.out"

 42 diagonal and 70 off-diagonal elements

 No power flow data changed for load "1" at bus 12 [LOAD12      138.00]

 No power flow data changed for load "1" at bus 7 [LOAD7       345.00]

 No power flow data changed for load "1" at bus 8 [LOAD8       345.00]

 No power flow data changed for load "1" at bus 23 [LOAD23      345.00]

 No power flow data changed for load "1" at bus 16 [LOAD16      345.00]

 No power flow data changed for load "1" at bus 18 [LOAD18      345.00]

 No power flow data changed for load "1" at bus 26 [LOAD26      345.00]

 Power flow data changed for load "1" at bus 29 [LOAD29      345.00]:
 X--ORIGINAL--X  X-NEW VALUE--X  DATA ITEM
    95.2379         53.0403      PL

 Channel output file is "./Cases/IEEE39_RE.out"

 42 diagonal and 70 off-diagonal elements

 No power flow data changed for load "1" at bus 12 [LOAD12      138.00]

 No power flow data changed for load "1" at bus 7 [LOAD7       345.00]

 No power flow data changed for load "1" at bus 8 [LOAD8       345.00]

 No power flow data changed for load "1" at bus 23 [LOAD23      345.00]

 No power flow data changed for load "1" at bus 16 [LOAD16      345.00]

 No power flow data changed for load "1" at bus 18 [LOAD18      345.00]

 No power flow data changed for load "1" at bus 26 [LOAD26      345.00]

 Power flow data changed for load "1" at bus 29 [LOAD29      345.00]:
 X--ORIGINAL--X  X-NEW VALUE--X  DATA ITEM
    53.0403         16.7670      PL

 Channel output file is "./Cases/IEEE39_RE.out"

 42 diagonal and 70 off-diagonal elements

 No power flow data changed for load "1" at bus 12 [LOAD12      138.00]

 No power flow data changed for load "1" at bus 7 [LOAD7       345.00]

 No power flow data changed for load "1" at bus 8 [LOAD8       345.00]

 No power flow data changed for load "1" at bus 23 [LOAD23      345.00]

 No power flow data changed for load "1" at bus 16 [LOAD16      345.00]

 No power flow data changed for load "1" at bus 18 [LOAD18      345.00]

 No power flow data changed for load "1" at bus 26 [LOAD26      345.00]

 Power flow data changed for load "1" at bus 29 [LOAD29      345.00]:
 X--ORIGINAL--X  X-NEW VALUE--X  DATA ITEM
    16.7670        -11.2521      PL

 Channel output file is "./Cases/IEEE39_RE.out"

 42 diagonal and 70 off-diagonal elements

 No power flow data changed for load "1" at bus 12 [LOAD12      138.00]

 No power flow data changed for load "1" at bus 7 [LOAD7       345.00]

 No power flow data changed for load "1" at bus 8 [LOAD8       345.00]

 No power flow data changed for load "1" at bus 23 [LOAD23      345.00]

 No power flow data changed for load "1" at bus 16 [LOAD16      345.00]

 No power flow data changed for load "1" at bus 18 [LOAD18      345.00]

 No power flow data changed for load "1" at bus 26 [LOAD26      345.00]

 Power flow data changed for load "1" at bus 29 [LOAD29      345.00]:
 X--ORIGINAL--X  X-NEW VALUE--X  DATA ITEM
   -11.2521        -29.6041      PL

 Channel output file is "./Cases/IEEE39_RE.out"

 42 diagonal and 70 off-diagonal elements

 No power flow data changed for load "1" at bus 12 [LOAD12      138.00]

 No power flow data changed for load "1" at bus 7 [LOAD7       345.00]

 No power flow data changed for load "1" at bus 8 [LOAD8       345.00]

 No power flow data changed for load "1" at bus 23 [LOAD23      345.00]

 No power flow data changed for load "1" at bus 16 [LOAD16      345.00]

 No power flow data changed for load "1" at bus 18 [LOAD18      345.00]

 No power flow data changed for load "1" at bus 26 [LOAD26      345.00]

 Power flow data changed for load "1" at bus 29 [LOAD29      345.00]:
 X--ORIGINAL--X  X-NEW VALUE--X  DATA ITEM
   -29.6041        -37.8541      PL

 Channel output file is "./Cases/IEEE39_RE.out"

 42 diagonal and 70 off-diagonal elements

 No power flow data changed for load "1" at bus 12 [LOAD12      138.00]

 No power flow data changed for load "1" at bus 7 [LOAD7       345.00]

 No power flow data changed for load "1" at bus 8 [LOAD8       345.00]

 No power flow data changed for load "1" at bus 23 [LOAD23      345.00]

 No power flow data changed for load "1" at bus 16 [LOAD16      345.00]

 No power flow data changed for load "1" at bus 18 [LOAD18      345.00]

 No power flow data changed for load "1" at bus 26 [LOAD26      345.00]

 Power flow data changed for load "1" at bus 29 [LOAD29      345.00]:
 X--ORIGINAL--X  X-NEW VALUE--X  DATA ITEM
   -37.8541        -36.4178      PL

 Channel output file is "./Cases/IEEE39_RE.out"

 42 diagonal and 70 off-diagonal elements

 No power flow data changed for load "1" at bus 12 [LOAD12      138.00]

 No power flow data changed for load "1" at bus 7 [LOAD7       345.00]

 No power flow data changed for load "1" at bus 8 [LOAD8       345.00]

 No power flow data changed for load "1" at bus 23 [LOAD23      345.00]

 No power flow data changed for load "1" at bus 16 [LOAD16      345.00]

 No power flow data changed for load "1" at bus 18 [LOAD18      345.00]

 No power flow data changed for load "1" at bus 26 [LOAD26      345.00]

 Power flow data changed for load "1" at bus 29 [LOAD29      345.00]:
 X--ORIGINAL--X  X-NEW VALUE--X  DATA ITEM
   -36.4178        -26.3719      PL

 Channel output file is "./Cases/IEEE39_RE.out"

 42 diagonal and 70 off-diagonal elements
     LTC DELAY TIMER RESET
     LTC DELAY TIMER RESET

 No power flow data changed for load "1" at bus 12 [LOAD12      138.00]

 No power flow data changed for load "1" at bus 7 [LOAD7       345.00]

 No power flow data changed for load "1" at bus 8 [LOAD8       345.00]

 No power flow data changed for load "1" at bus 23 [LOAD23      345.00]

 No power flow data changed for load "1" at bus 16 [LOAD16      345.00]

 No power flow data changed for load "1" at bus 18 [LOAD18      345.00]

 No power flow data changed for load "1" at bus 26 [LOAD26      345.00]

 Power flow data changed for load "1" at bus 29 [LOAD29      345.00]:
 X--ORIGINAL--X  X-NEW VALUE--X  DATA ITEM
   -26.3719        -9.29259      PL

 Channel output file is "./Cases/IEEE39_RE.out"

 42 diagonal and 70 off-diagonal elements

 No power flow data changed for load "1" at bus 12 [LOAD12      138.00]

 No power flow data changed for load "1" at bus 7 [LOAD7       345.00]

 No power flow data changed for load "1" at bus 8 [LOAD8       345.00]

 No power flow data changed for load "1" at bus 23 [LOAD23      345.00]

 No power flow data changed for load "1" at bus 16 [LOAD16      345.00]

 No power flow data changed for load "1" at bus 18 [LOAD18      345.00]

 No power flow data changed for load "1" at bus 26 [LOAD26      345.00]

 Power flow data changed for load "1" at bus 29 [LOAD29      345.00]:
 X--ORIGINAL--X  X-NEW VALUE--X  DATA ITEM
   -9.29259         12.8665      PL

 Channel output file is "./Cases/IEEE39_RE.out"

 42 diagonal and 70 off-diagonal elements
 LTC DELAY TIMER STARTED AT                15 LOAD15       345.00 1  V= 1.0200 AT TIME=   5.968
 LTC DELAY TIMER STARTED AT                24 LOAD24       345.00 1  V= 1.0201 AT TIME=   5.980

 No power flow data changed for load "1" at bus 12 [LOAD12      138.00]

 No power flow data changed for load "1" at bus 7 [LOAD7       345.00]

 No power flow data changed for load "1" at bus 8 [LOAD8       345.00]

 No power flow data changed for load "1" at bus 23 [LOAD23      345.00]

 No power flow data changed for load "1" at bus 16 [LOAD16      345.00]

 No power flow data changed for load "1" at bus 18 [LOAD18      345.00]

 No power flow data changed for load "1" at bus 26 [LOAD26      345.00]

 Power flow data changed for load "1" at bus 29 [LOAD29      345.00]:
 X--ORIGINAL--X  X-NEW VALUE--X  DATA ITEM
    12.8665         37.8887      PL

 Channel output file is "./Cases/IEEE39_RE.out"

 42 diagonal and 70 off-diagonal elements

 No power flow data changed for load "1" at bus 12 [LOAD12      138.00]

 No power flow data changed for load "1" at bus 7 [LOAD7       345.00]

 No power flow data changed for load "1" at bus 8 [LOAD8       345.00]

 No power flow data changed for load "1" at bus 23 [LOAD23      345.00]

 No power flow data changed for load "1" at bus 16 [LOAD16      345.00]

 No power flow data changed for load "1" at bus 18 [LOAD18      345.00]

 No power flow data changed for load "1" at bus 26 [LOAD26      345.00]

 Power flow data changed for load "1" at bus 29 [LOAD29      345.00]:
 X--ORIGINAL--X  X-NEW VALUE--X  DATA ITEM
    37.8887         63.4240      PL

 Channel output file is "./Cases/IEEE39_RE.out"

 42 diagonal and 70 off-diagonal elements

 No power flow data changed for load "1" at bus 12 [LOAD12      138.00]

 No power flow data changed for load "1" at bus 7 [LOAD7       345.00]

 No power flow data changed for load "1" at bus 8 [LOAD8       345.00]

 No power flow data changed for load "1" at bus 23 [LOAD23      345.00]

 No power flow data changed for load "1" at bus 16 [LOAD16      345.00]

 No power flow data changed for load "1" at bus 18 [LOAD18      345.00]

 No power flow data changed for load "1" at bus 26 [LOAD26      345.00]

 Power flow data changed for load "1" at bus 29 [LOAD29      345.00]:
 X--ORIGINAL--X  X-NEW VALUE--X  DATA ITEM
    63.4240         87.1732      PL

 Channel output file is "./Cases/IEEE39_RE.out"

 42 diagonal and 70 off-diagonal elements

 No power flow data changed for load "1" at bus 12 [LOAD12      138.00]

 No power flow data changed for load "1" at bus 7 [LOAD7       345.00]

 No power flow data changed for load "1" at bus 8 [LOAD8       345.00]

 No power flow data changed for load "1" at bus 23 [LOAD23      345.00]

 No power flow data changed for load "1" at bus 16 [LOAD16      345.00]

 No power flow data changed for load "1" at bus 18 [LOAD18      345.00]

 No power flow data changed for load "1" at bus 26 [LOAD26      345.00]

 Power flow data changed for load "1" at bus 29 [LOAD29      345.00]:
 X--ORIGINAL--X  X-NEW VALUE--X  DATA ITEM
    87.1732         107.193      PL

 Channel output file is "./Cases/IEEE39_RE.out"

 42 diagonal and 70 off-diagonal elements

 No power flow data changed for load "1" at bus 12 [LOAD12      138.00]

 No power flow data changed for load "1" at bus 7 [LOAD7       345.00]

 No power flow data changed for load "1" at bus 8 [LOAD8       345.00]

 No power flow data changed for load "1" at bus 23 [LOAD23      345.00]

 No power flow data changed for load "1" at bus 16 [LOAD16      345.00]

 No power flow data changed for load "1" at bus 18 [LOAD18      345.00]

 No power flow data changed for load "1" at bus 26 [LOAD26      345.00]

 Power flow data changed for load "1" at bus 29 [LOAD29      345.00]:
 X--ORIGINAL--X  X-NEW VALUE--X  DATA ITEM
    107.193         122.287      PL

 Channel output file is "./Cases/IEEE39_RE.out"

 42 diagonal and 70 off-diagonal elements

 No power flow data changed for load "1" at bus 12 [LOAD12      138.00]

 No power flow data changed for load "1" at bus 7 [LOAD7       345.00]

 No power flow data changed for load "1" at bus 8 [LOAD8       345.00]

 No power flow data changed for load "1" at bus 23 [LOAD23      345.00]

 No power flow data changed for load "1" at bus 16 [LOAD16      345.00]

...